[General]
network = Network
sim-time-limit = 200s

Network.nodeTx.gen.generationInterval=exponential(0.01)
Network.nodeTx.gen.packetByteSize = 12500
Network.nodeTx.traTx.bufferSize = 2000000

Network.dataQueue.bufferSize = 3
Network.feedbackQueue.bufferSize = 3
Network.nodeRx.traRx.bufferSize = 3
